.include "header.jsim"

.subckt add32 a[31:0] b[31:0] c_in0 sum[31:0] c_out[31:30]
.ends
