.include "8clocks.jsim"
.include "nominal.jsim"
.include "stdcell.jsim"

.subckt fx a b c d e f g out
.ends


.tran 10ns
.plot clk1
.plot out
